  
       XFOIL         Version 6.99
  
 Calculated polar for: FX74_CL5_140                                    
  
 1 1 Reynolds number fixed          Mach number fixed         
  
 xtrf =   1.000 (top)        1.000 (bottom)  
 Mach =   0.000     Re =     0.500 e 6     Ncrit =   9.000
  
   alpha    CL        CD       CDp       CM     Top_Xtr  Bot_Xtr
  ------ -------- --------- --------- -------- -------- --------
  -2.000   0.8588   0.02642   0.02067  -0.2159   0.4901   0.0229
  -1.750   0.9109   0.02375   0.01765  -0.2221   0.4888   0.0261
  -1.500   0.9462   0.02275   0.01654  -0.2248   0.4875   0.0278
  -1.250   0.9895   0.02122   0.01473  -0.2287   0.4862   0.0317
  -1.000   1.0294   0.02019   0.01344  -0.2317   0.4849   0.0371
  -0.750   1.0659   0.01955   0.01260  -0.2340   0.4835   0.0440
  -0.500   1.1014   0.01921   0.01211  -0.2362   0.4817   0.0528
