  
       XFOIL         Version 6.99
  
 Calculated polar for: GOE 12K AIRFOIL                                 
  
 1 1 Reynolds number fixed          Mach number fixed         
  
 xtrf =   1.000 (top)        1.000 (bottom)  
 Mach =   0.000     Re =     0.500 e 6     Ncrit =   9.000
  
   alpha    CL        CD       CDp       CM     Top_Xtr  Bot_Xtr
  ------ -------- --------- --------- -------- -------- --------
  -1.500   0.2192   0.01272   0.00601  -0.1014   0.8696   0.0767
  -1.250   0.2559   0.01234   0.00565  -0.1034   0.8690   0.0792
  -1.000   0.2926   0.01207   0.00540  -0.1054   0.8683   0.0817
  -0.750   0.3325   0.01184   0.00518  -0.1082   0.8678   0.0851
   0.250   0.4061   0.01146   0.00510  -0.0998   0.8545   0.1590
   0.500   0.4376   0.01051   0.00501  -0.1011   0.8535   0.4351
   0.750   0.4637   0.00952   0.00548  -0.1012   0.8500   0.8711
