  
       XFOIL         Version 6.99
  
 Calculated polar for: GOE 376 AIRFOIL                                 
  
 1 1 Reynolds number fixed          Mach number fixed         
  
 xtrf =   1.000 (top)        1.000 (bottom)  
 Mach =   0.000     Re =     0.500 e 6     Ncrit =   9.000
  
   alpha    CL        CD       CDp       CM     Top_Xtr  Bot_Xtr
  ------ -------- --------- --------- -------- -------- --------
  -2.000   0.2964   0.01908   0.01428  -0.0959   0.7985   0.0336
  -1.750   0.3193   0.01796   0.01304  -0.0952   0.7824   0.0345
  -1.500   0.3430   0.01707   0.01198  -0.0945   0.7660   0.0358
  -1.250   0.3672   0.01626   0.01096  -0.0936   0.7492   0.0376
  -1.000   0.3944   0.01669   0.01107  -0.0925   0.7317   0.0412
  -0.750   0.4162   0.01457   0.00872  -0.0915   0.7149   0.0435
  -0.500   0.4402   0.01395   0.00799  -0.0908   0.6973   0.0455
  -0.250   0.4654   0.01361   0.00749  -0.0900   0.6814   0.0497
