  
       XFOIL         Version 6.99
  
 Calculated polar for: NACA 64(2)-415 [NACA 6a series from Theory of Wi
  
 1 1 Reynolds number fixed          Mach number fixed         
  
 xtrf =   1.000 (top)        1.000 (bottom)  
 Mach =   0.000     Re =     0.500 e 6     Ncrit =   9.000
  
   alpha    CL        CD       CDp       CM     Top_Xtr  Bot_Xtr
  ------ -------- --------- --------- -------- -------- --------
  -2.000  12.8977   0.46028   0.07331*********   0.4309   0.0590
  -1.750  15.8472   0.45531   0.07068*********   0.4222   0.0733
  -1.500  18.7684   0.45582   0.07089*********   0.4092   0.0834
  -1.250  21.6838   0.45575   0.07073*********   0.3948   0.0976
  -1.000  24.5880   0.45729   0.07062*********   0.3783   0.1121
  -0.750  27.4428   0.46395   0.07440*********   0.3510   0.1275
  -0.250  33.1830   0.47577   0.07898*********   0.3045   0.1591
   0.000  36.0466   0.47939   0.08233*********   0.2815   0.1888
   0.500  41.8379   0.47843   0.08574*********   0.2448   0.2612
   0.750  44.6525   0.48824   0.09162*********   0.2120   0.2905
   1.000  47.5235   0.49302   0.09564*********   0.1889   0.3187
   1.250  50.4138   0.49645   0.09961*********   0.1737   0.3445
   1.500  53.2793   0.50174   0.10470*********   0.1554   0.3719
   2.000  58.9540   0.52059   0.11804*********   0.1091   0.4151
   2.250  61.8292   0.52746   0.12353*********   0.0978   0.4308
   2.500  64.6833   0.53647   0.12952*********   0.0822   0.4439
   2.750  67.5388   0.54636   0.13650*********   0.0712   0.4533
   3.000  70.3901   0.55619   0.14359*********   0.0615   0.4593
   3.500  76.0611   0.57823   0.15980*********   0.0434   0.4736
   3.750  78.8686   0.59196   0.16976*********   0.0332   0.4779
   4.000  81.7025   0.60173   0.17800*********   0.0273   0.4880
   4.250  84.5384   0.61180   0.18646*********   0.0250   0.4911
   4.500  87.3899   0.61977   0.19388*********   0.0229   0.5004
   4.750  90.2302   0.62818   0.20173*********   0.0221   0.5056
   5.000  93.0430   0.63904   0.21111*********   0.0199   0.5109
   5.250  95.8766   0.64711   0.21924*********   0.0189   0.5194
   5.500  98.6706   0.65914   0.22963*********   0.0171   0.5224
   5.750 101.4790   0.66874   0.23891*********   0.0157   0.5321
   6.000 104.2587   0.68051   0.24960*********   0.0145   0.5369
