  
       XFOIL         Version 6.99
  
 Calculated polar for: EPPLER STE 871-514 AIRFOIL                      
  
 1 1 Reynolds number fixed          Mach number fixed         
  
 xtrf =   1.000 (top)        1.000 (bottom)  
 Mach =   0.000     Re =     0.500 e 6     Ncrit =   9.000
  
   alpha    CL        CD       CDp       CM     Top_Xtr  Bot_Xtr
  ------ -------- --------- --------- -------- -------- --------
  -2.000   0.0778   0.01649   0.01252  -0.0805   0.8760   0.7720
  -1.750   0.0992   0.01693   0.01294  -0.0787   0.8729   0.7846
  -1.500   0.1180   0.01748   0.01356  -0.0756   0.8708   0.7999
  -1.250   0.1387   0.01791   0.01402  -0.0728   0.8693   0.8137
  -1.000   0.1631   0.01809   0.01421  -0.0711   0.8682   0.8206
  -0.750   0.2012   0.01805   0.01411  -0.0733   0.8677   0.8257
  -0.500   0.2363   0.01785   0.01388  -0.0746   0.8671   0.8275
