  
       XFOIL         Version 6.99
  
 Calculated polar for: EPPLER STF 863-615 AIRFOIL                      
  
 1 1 Reynolds number fixed          Mach number fixed         
  
 xtrf =   1.000 (top)        1.000 (bottom)  
 Mach =   0.000     Re =     0.500 e 6     Ncrit =   9.000
  
   alpha    CL        CD       CDp       CM     Top_Xtr  Bot_Xtr
  ------ -------- --------- --------- -------- -------- --------
  -2.000   0.3224   0.01810   0.01326  -0.1409   0.8541   0.6282
  -1.750   0.3539   0.01820   0.01337  -0.1414   0.8530   0.6447
  -1.500   0.3855   0.01830   0.01349  -0.1419   0.8522   0.6580
  -1.250   0.4178   0.01835   0.01355  -0.1425   0.8515   0.6688
  -1.000   0.4490   0.01845   0.01369  -0.1429   0.8510   0.6793
  -0.750   0.4725   0.01876   0.01409  -0.1415   0.8496   0.6894
  -0.500   0.5115   0.01852   0.01381  -0.1439   0.8501   0.6936
