  
       XFOIL         Version 6.99
  
 Calculated polar for: NN10601                                         
  
 1 1 Reynolds number fixed          Mach number fixed         
  
 xtrf =   1.000 (top)        1.000 (bottom)  
 Mach =   0.000     Re =     0.500 e 6     Ncrit =   9.000
  
   alpha    CL        CD       CDp       CM     Top_Xtr  Bot_Xtr
  ------ -------- --------- --------- -------- -------- --------
  -1.750   0.1757   0.01510   0.00829  -0.0783   0.7258   0.0220
  -1.500   0.2064   0.01386   0.00702  -0.0777   0.7253   0.0108
  -1.250   0.2369   0.01314   0.00622  -0.0778   0.7248   0.0096
  -1.000   0.2664   0.01233   0.00539  -0.0780   0.7243   0.0093
  -0.750   0.2977   0.01167   0.00470  -0.0785   0.7237   0.0092
  -0.500   0.3322   0.01110   0.00408  -0.0797   0.7232   0.0090
  -0.250   0.3668   0.01063   0.00357  -0.0810   0.7225   0.0092
