  
       XFOIL         Version 6.99
  
 Calculated polar for: NN13681                                         
  
 1 1 Reynolds number fixed          Mach number fixed         
  
 xtrf =   1.000 (top)        1.000 (bottom)  
 Mach =   0.000     Re =     0.500 e 6     Ncrit =   9.000
  
   alpha    CL        CD       CDp       CM     Top_Xtr  Bot_Xtr
  ------ -------- --------- --------- -------- -------- --------
  -2.000   0.2464   0.02184   0.01433  -0.1278   0.7269   0.1476
  -1.750   0.2733   0.02135   0.01388  -0.1285   0.7262   0.1622
  -1.500   0.2993   0.02080   0.01343  -0.1290   0.7254   0.1866
  -0.500   0.2102   0.02264   0.01556  -0.0914   0.7106   0.2656
   0.250  -0.0633   0.03562   0.02812  -0.0283   0.6677   0.1595
   1.000  -0.0309   0.03332   0.02636  -0.0191   0.6663   0.3059
   1.250  -0.0718   0.03104   0.02485  -0.0043   0.6655   0.5269
