  
       XFOIL         Version 6.99
  
 Calculated polar for: NN13076                                         
  
 1 1 Reynolds number fixed          Mach number fixed         
  
 xtrf =   1.000 (top)        1.000 (bottom)  
 Mach =   0.000     Re =     0.500 e 6     Ncrit =   9.000
  
   alpha    CL        CD       CDp       CM     Top_Xtr  Bot_Xtr
  ------ -------- --------- --------- -------- -------- --------
  -2.000  -0.5026   0.03997   0.03286   0.0063   0.7059   0.1958
  -1.750  -0.4881   0.03925   0.03235   0.0087   0.7049   0.2387
  -1.500  -0.4802   0.03819   0.03169   0.0124   0.7041   0.3178
  -1.250  -0.4800   0.03685   0.03094   0.0178   0.7033   0.4386
  -1.000  -0.4789   0.03567   0.03031   0.0232   0.7025   0.5524
  -0.750  -0.4653   0.03510   0.03001   0.0262   0.7019   0.6160
